/*--------------------------------*- C++ -*----------------------------------*\
  =========                 |
  \\      /  F ield         | OpenFOAM: The Open Source CFD Toolbox
   \\    /   O peration     | Website:  https://openfoam.org
    \\  /    A nd           | Version:  6
     \\/     M anipulation  |
\*---------------------------------------------------------------------------*/
FoamFile
{
    version     2.0;
    format      ascii;
    class       dictionary;
    object      blockMeshDict;
}
// * * * * * * * * * * * * * * * * * * * * * * * * * * * * * * * * * * * * * //

convertToMeters 1e-6;
//alsi tarin blockmesh man

x 52; //the number of mesh in direction of x for small blocks
y 66; //the number of mesh in direction of x for bigger blocks 
z 56; //the number of mesh in direction of y
w 1; //the number of mesh in direction of z

vertices
(
    (26.5 -28 0)//0
    (93.5 -28 0)//1
    (120 -1.5 0)//2
    (120 0 0)//3
    (120 1.5 0)//4
    (93.5 28 0)//5
    (26.5 28 0)//6
    (0 1.5 0)//7
    (0 0 0)//8
    (0 -1.5 0)//9
   
    (18.73 -9.27 0)//10
    (60 -1.5 0)//11
    (101.27 -9.27 0)//12
    (101.27 9.27 0)//13
    (60 1.5 0)//14
    (18.73 9.27 0)//15
    
    (26.5 0 0)//16
    (60 0 0)//17
    (93.5 0 0)//18
    
    (26.5 -28 1)//19
    (93.5 -28 1)//20
    (120 -1.5 1)//21
    (120 0 1)//22
    (120 1.5 1)//23
    (93.5 28 1)//24
    (26.5 28 1)//25
    (0 1.5 1)//26
    (0 0 1)//27
    (0 -1.5 1)//28
   
    (18.73 -9.27 1)//29
    (60 -1.5 1)//30
    (101.27 -9.27 1)//31
    (101.27 9.27 1)//32
    (60 1.5 1)//33
    (18.73 9.27 1)//34
    
    (26.5 0 1)//35
    (60 0 1)//36
    (93.5 0 1)//37
    

);

blocks
(

    
   
    hex (9 0 16 8 28 19 35 27) ($x $z $w) simpleGrading (1 1 1)
    hex (0 11 17 16 19 30 36 35) ($y $z $w) simpleGrading (1 1 1)
    hex (11 1 18 17 30 20 37 36) ($y $z $w) simpleGrading (1 1 1)
    hex (1 2 3 18 20 21 22 37) ($x $z $w) simpleGrading (1 1 1) 
    hex (18 3 4 5 37 22 23 24) ($x $z $w) simpleGrading (1 1 1) 
    hex (17 18 5 14 36 37 24 33) ($y $z $w) simpleGrading (1 1 1)
    hex (16 17 14 6 35 36 33 25) ($y $z $w) simpleGrading (1 1 1)
    hex (8 16 6 7 27 35 25 26) ($x $z $w) simpleGrading (1 1 1) 
    


);

edges
(

arc 9 0 (18.73 -9.27 0)
arc 28 19 (18.73 -9.27 1)
arc 0 11 (59.5 -1.5 0)
arc 19 30 (59.5 -1.5 1)
arc 11 1 (60.5 -1.5 0)
arc 30 20 (60.5 -1.5 1)
arc 5 14 (60.5 1.5 0)
arc 24 33 (60.5 1.5 1)
arc 1 2 (101.27 -9.27 0)
arc 20 21 (101.27 -9.27 1)
arc 4 5 (101.27 9.27 0)
arc 23 24 (101.27 9.27 1)
arc 6 7 (18.73 9.27 0)
arc 25 26 (18.73 9.27 1)
arc 14 6 (59.5 1.5 0)
arc 33 25 (59.5 1.5 1)

);
defaultPatch
{
    name frontAndBack;
    type empty;
}

boundary
(
  inlet
    {
        type patch;
        faces
        (
            (28 27 8 9)
            (27 26 7 8)
            
        );
    }
   outlet
    {
        type patch;
        faces
        (
             (21 2 3 22)
             (22 3 4 23)
            
        );
    }
    walls
    {
        type wall;
        faces
        (
            (19 28 9 0)
            (19 0 11 30)
            (30 11 1 20)
            (20 1 2 21)
            (23 4 5 24)
            (24 5 14 33)
            (33 14 6 25)  
            (25 6 7 26)

        );
    }
 
);

mergePatchPairs
(
);

// ************************************************************************* //
