/*--------------------------------*- C++ -*----------------------------------*\
  =========                 |
  \\      /  F ield         | OpenFOAM: The Open Source CFD Toolbox
   \\    /   O peration     | Website:  https://openfoam.org
    \\  /    A nd           | Version:  11
     \\/     M anipulation  |
\*---------------------------------------------------------------------------*/
FoamFile
{
    version     2.0;
    format      ascii;
    class       volScalarField;
    location    "0";
    object      alpha.air;
}
// * * * * * * * * * * * * * * * * * * * * * * * * * * * * * * * * * * * * * //

dimensions      [0 0 0 0 0 0 0];

internalField   uniform 1;

boundaryField
{
    inlet
    {
        type            fixedValue;
        value           uniform 0;
    }
    outlet
    {
        type            zeroGradient;

    }
    walls
    {
        type              alphaContactAngle;
        thetaProperties
        (
            ( water oil ) 0 0 0 0
            
        );
        value           uniform 0;
    }
       frontAndBack
    {
        type              alphaContactAngle;
        thetaProperties
        (
            ( water oil ) 0 0 0 0
            
        );
        value           uniform 0;
    }	
}

// ************************************************************************* //
